Texas-Data/Texas7k_2030_20220923.m
% Case saved by PowerWorld Simulator, version 23, build date August 24, 2022
% Case Information Header = 4 lines
% This is a synthetic electric grid designed by researchers at Texas A&M University, created for use in the ARPA-E PERFORM 
% program
% Reference: A. B. Birchfield, T. Xu, K. M. Gegner, K. S. Shetye, and T. J. Overbye, "Grid structural characteristics as validation 
% criteria for synthetic networks," IEEE Transactions on Power Systems, vol. 32, no. 4, pp. 3258-3265, Jul. 2017.
function mpc = Texas7k_2030_20220923
mpc.version = '2';
mpc.baseMVA =  100.00;

%% bus data  bus_i	type	Pd	Qd	Gs	Bs	area	Vm	Va	baseKV	zone	Vmax	Vmin	lam_P	lam_Q	mu_Vmax	mu_Vmin
mpc.bus = [
1	1	0.00	0.00	0.00	0.00	3	1.0400000	22.331041	345.00	1	1.100	0.900	4.64	0.00	0	0
2	1	0.00	0.00	0.00	0.00	2	1.0400000	50.507440	345.00	1	1.100	0.900	-8.74	0.27	0	0
3	1	0.00	0.00	0.00	0.00	1	1.0023584	26.704630	345.00	1	1.100	0.900	3.81	-0.13	0	0
4	1	0.00	0.00	0.00	0.00	7	1.0400000	-41.403814	345.00	1	1.100	0.900	41.77	-0.00	0	0
5	1	0.00	0.00	0.00	0.00	8	1.0000000	-30.661394	345.00	1	1.100	0.900	17.88	0.03	0	0
6	1	0.00	0.00	0.00	0.00	7	1.0000000	-39.475980	345.00	1	1.100	0.900	41.22	2.75	0	0
7	1	0.00	0.00	0.00	0.00	3	1.0400000	11.058081	345.00	1	1.100	0.900	-414.21	-0.01	0	0
8	1	0.00	0.00	0.00	0.00	4	1.0000000	38.009158	345.00	1	1.100	0.900	6.41	0.01	0	0
9	1	0.00	0.00	0.00	0.00	7	1.0400000	-56.712470	345.00	1	1.100	0.900	13.79	-0.02	0	0
10	1	0.00	0.00	0.00	0.00	3	1.0400000	23.703474	345.00	1	1.100	0.900	9.91	-0.00	0	0
11	1	0.00	0.00	0.00	0.00	3	1.0400000	19.900251	345.00	1	1.100	0.900	12.56	0.01	0	0
12	1	0.00	0.00	0.00	0.00	3	1.0400000	12.469882	345.00	1	1.100	0.900	-19.13	-0.01	0	0
13	1	0.00	0.00	0.00	0.00	2	1.0400000	27.410969	345.00	1	1.100	0.900	12.63	-0.01	0	0
14	1	0.00	0.00	0.00	0.00	4	1.0400000	23.527325	345.00	1	1.100	0.900	13.69	-0.01	0	0
15	1	0.00	0.00	0.00	0.00	2	1.0400000	7.233793	345.00	1	1.100	0.900	-6.75	-0.00	0	0
16	1	0.00	0.00	0.00	0.00	1	1.0400000	36.988321	345.00	1	1.100	0.900	1.87	-0.00	0	0
17	1	0.00	0.00	0.00	0.00	8	1.0400000	-32.623099	345.00	1	1.100	0.900	46.80	0.00	0	0
18	1	0.00	0.00	0.00	0.00	2	1.0400000	-50.642632	345.00	1	1.100	0.900	-49.59	-0.05	0	0
19	1	0.00	0.00	0.00	0.00	7	1.0400000	-48.059621	345.00	1	1.100	0.900	44.58	0.00	0	0
20	1	0.00	0.00	0.00	0.00	1	1.0000000	32.451677	345.00	1	1.100	0.900	1.22	0.01	0	0
21	1	0.00	0.00	0.00	0.00	1	1.0400000	28.902422	345.00	1	1.100	0.900	2.51	-0.00	0	0
22	1	0.00	0.00	0.00	0.00	3	1.0400000	21.579316	345.00	1	1.100	0.900	15.19	0.00	0	0
23	1	0.00	0.00	0.00	0.00	3	1.0400000	-29.465018	345.00	1	1.100	0.900	46.95	0.00	0	0
24	1	0.00	0.00	0.00	0.00	6	1.0400000	-38.586223	345.00	1	1.100	0.900	12.27	0.00	0	0
25	1	0.00	0.00	0.00	0.00	2	1.0400000	-29.762040	345.00	1	1.100	0.900	13.35	-0.01	0	0
26	1	0.00	0.00	0.00	0.00	1	1.0400000	54.721708	345.00	1	1.100	0.900	0.31	-0.01	0	0
27	1	0.00	0.00	0.00	0.00	5	1.0400000	-2.865077	345.00	1	1.100	0.900	8.52	0.00	0	0
28	1	0.00	0.00	0.00	0.00	2	1.0400000	-49.961327	345.00	1	1.100	0.900	-49.37	-0.05	0	0
29	1	0.00	0.00	0.00	0.00	2	1.0000000	-32.234600	345.00	1	1.100	0.900	13.33	0.01	0	0
30	1	0.00	0.00	0.00	0.00	8	1.0105186	-35.607632	345.00	1	1.100	0.900	46.81	0.33	0	0
31	1	0.00	0.00	0.00	0.00	4	1.0424675	4.531980	345.00	1	1.100	0.900	8.81	-0.18	0	0
32	1	0.00	0.00	0.00	0.00	5	1.0400000	36.802627	345.00	1	1.100	0.900	9.04	0.00	0	0
33	1	0.00	0.00	0.00	0.00	1	1.0400000	35.992091	345.00	1	1.100	0.900	-18.81	-0.01	0	0
34	1	0.00	0.00	0.00	0.00	3	1.0400000	7.164766	345.00	1	1.100	0.900	15.24	0.00	0	0
35	1	0.00	0.00	0.00	0.00	3	1.0400000	22.479693	345.00	1	1.100	0.900	12.47	0.00	0	0
36	1	0.00	0.00	0.00	0.00	1	1.0400000	31.364982	345.00	1	1.100	0.900	0.06	-0.00	0	0
37	1	0.00	0.00	0.00	0.00	1	1.0400000	28.073977	345.00	1	1.100	0.900	3.52	0.00	0	0
38	1	0.00	0.00	0.00	0.00	3	1.0400000	7.333015	345.00	1	1.100	0.900	-0.03	0.01	0	0
39	1	0.00	0.00	0.00	0.00	1	1.0400000	23.573992	345.00	1	1.100	0.900	2.15	-0.00	0	0
40	1	0.00	0.00	0.00	0.00	3	1.0400000	14.673071	345.00	1	1.100	0.900	-412.85	-0.02	0	0
41	1	0.00	0.00	0.00	0.00	4	1.0400000	39.507814	345.00	1	1.100	0.900	5.17	-0.00	0	0
42	1	0.00	0.00	0.00	0.00	4	1.0400000	38.323760	345.00	1	1.100	0.900	7.95	-0.00	0	0
43	1	0.00	0.00	0.00	0.00	4	1.0400000	48.197855	345.00	1	1.100	0.900	0.31	-0.00	0	0
44	1	0.00	0.00	0.00	0.00	1	1.0400000	31.946725	345.00	1	1.100	0.900	2.58	-0.00	0	0
45	1	0.00	0.00	0.00	0.00	1	1.0347461	24.322386	345.00	1	1.100	0.900	3.06	-0.02	0	0
46	1	0.00	0.00	0.00	0.00	7	1.0400000	-38.835176	345.00	1	1.100	0.900	17.83	0.01	0	0
47	1	0.00	0.00	0.00	0.00	7	1.0379414	-59.799461	345.00	1	1.100	0.900	42.55	0.80	0	0
48	1	0.00	0.00	0.00	0.00	7	1.0400000	-49.495613	345.00	1	1.100	0.900	16.60	-0.02	0	0
49	1	0.00	0.00	0.00	0.00	5	1.0400000	-19.523346	345.00	1	1.100	0.900	17.96	-0.01	0	0
50	1	0.00	0.00	0.00	0.00	4	1.0400000	39.126281	345.00	1	1.100	0.900	13.76	-0.00	0	0
51	1	0.00	0.00	0.00	0.00	1	1.0400000	52.479104	345.00	1	1.100	0.900	0.17	-0.01	0	0
52	1	0.00	0.00	0.00	0.00	1	1.0400000	49.711675	345.00	1	1.100	0.900	-33.28	-0.02	0	0
53	1	0.00	0.00	0.00	0.00	2	1.0400000	-16.978628	345.00	1	1.100	0.900	17.40	-0.02	0	0
54	1	0.00	0.00	0.00	0.00	1	1.0400000	47.953742	345.00	1	1.100	0.900	4.86	-0.00	0	0
55	1	0.00	0.00	0.00	0.00	1	1.0400000	40.731606	345.00	1	1.100	0.900	0.12	0.00	0	0
56	1	0.00	0.00	0.00	0.00	3	1.0000000	30.036011	345.00	1	1.100	0.900	-43.45	0.01	0	0
57	1	0.00	0.00	0.00	0.00	4	1.0400000	7.686766	345.00	1	1.100	0.900	22.56	-0.00	0	0
58	1	0.00	0.00	0.00	0.00	2	1.0400000	-29.902946	345.00	1	1.100	0.900	25.97	-0.00	0	0
59	1	0.00	0.00	0.00	0.00	5	1.0400000	-44.936544	345.00	1	1.100	0.900	13.27	-0.01	0	0
60	1	0.00	0.00	0.00	0.00	5	1.0400000	-46.649306	345.00	1	1.100	0.900	-14.47	-0.04	0	0
61	1	0.00	0.00	0.00	0.00	4	1.0400000	1.682490	345.00	1	1.100	0.900	8.74	-0.00	0	0
62	1	0.00	0.00	0.00	0.00	4	1.0400000	2.709021	345.00	1	1.100	0.900	8.76	-0.00	0	0
64	1	0.00	0.00	0.00	0.00	4	1.0400000	-6.027277	345.00	1	1.100	0.900	16.78	-0.00	0	0
65	1	0.00	0.00	0.00	0.00	1	1.0400000	34.696482	345.00	1	1.100	0.900	-18.91	-0.01	0	0
66	1	0.00	0.00	0.00	0.00	5	1.0400000	-46.628054	345.00	1	1.100	0.900	12.95	-0.01	0	0
67	1	0.00	0.00	0.00	0.00	8	1.0057161	-47.770356	345.00	1	1.100	0.900	85.98	16.92	0	0
68	1	0.00	0.00	0.00	0.00	1	1.0400000	55.515708	345.00	1	1.100	0.900	0.23	-0.00	0	0
69	1	0.00	0.00	0.00	0.00	1	1.0400000	55.538178	345.00	1	1.100	0.900	0.25	-0.00	0	0
70	1	0.00	0.00	0.00	0.00	1	1.0400000	31.049677	345.00	1	1.100	0.900	0.04	0.00	0	0
71	1	0.00	0.00	0.00	0.00	1	1.0000000	25.567829	345.00	1	1.100	0.900	4.35	0.01	0	0
72	1	0.00	0.00	0.00	0.00	3	1.0400000	4.214127	345.00	1	1.100	0.900	-6.23	0.01	0	0
73	1	0.00	0.00	0.00	0.00	1	1.0400000	20.372905	345.00	1	1.100	0.900	5.53	0.00	0	0
74	1	0.00	0.00	0.00	0.00	1	1.0400000	29.383078	345.00	1	1.100	0.900	2.52	-0.00	0	0
75	1	0.00	0.00	0.00	0.00	4	1.0400000	47.699375	345.00	1	1.100	0.900	0.44	-0.01	0	0
76	1	0.00	0.00	0.00	0.00	4	1.0400000	35.313945	345.00	1	1.100	0.900	7.03	-0.01	0	0
77	1	0.00	0.00	0.00	0.00	3	1.0400000	19.675038	345.00	1	1.100	0.900	13.03	0.00	0	0
78	1	0.00	0.00	0.00	0.00	5	1.0400000	-41.797107	345.00	1	1.100	0.900	49.57	0.01	0	0
79	1	0.00	0.00	0.00	0.00	4	1.0400000	33.231807	345.00	1	1.100	0.900	11.47	-0.00	0	0
80	1	0.00	0.00	0.00	0.00	5	1.0000000	-36.865936	345.00	1	1.100	0.900	47.65	0.00	0	0
81	1	0.00	0.00	0.00	0.00	5	1.0058275	-37.013318	345.00	1	1.100	0.900	47.73	1.17	0	0
82	1	0.00	0.00	0.00	0.00	8	1.0400000	-32.203904	345.00	1	1.100	0.900	46.96	0.00	0	0
83	1	0.00	0.00	0.00	0.00	7	1.0400000	-37.641318	345.00	1	1.100	0.900	57.29	0.02	0	0
84	1	0.00	0.00	0.00	0.00	5	1.0400000	-45.428190	345.00	1	1.100	0.900	47.19	0.00	0	0
85	1	0.00	0.00	0.00	0.00	2	1.0000000	-8.957223	345.00	1	1.100	0.900	-13.00	0.01	0	0
86	1	0.00	0.00	0.00	0.00	7	1.0400000	-32.345306	345.00	1	1.100	0.900	23.81	-0.05	0	0
87	1	0.00	0.00	0.00	0.00	2	1.0400000	-24.080368	345.00	1	1.100	0.900	26.04	-0.01	0	0
88	1	0.00	0.00	0.00	0.00	2	1.0308604	-23.057749	345.00	1	1.100	0.900	17.38	0.53	0	0
89	1	0.00	0.00	0.00	0.00	5	1.0400000	-40.306793	345.00	1	1.100	0.900	27.36	-0.00	0	0
90	2	0.00	0.00	0.00	0.00	3	1.0400431	22.908716	18.00	1	1.100	0.900	4.65	0.00	0	0
91	2	0.00	0.00	0.00	0.00	3	1.0400431	22.908716	18.00	1	1.100	0.900	4.65	0.00	0	0
92	2	0.00	0.00	0.00	0.00	3	1.0399855	22.557194	18.00	1	1.100	0.900	4.64	0.00	0	0
93	2	0.00	0.00	0.00	0.00	2	1.0543504	53.232063	18.00	1	1.100	0.900	-6.76	0.00	0	0
94	2	0.00	0.00	0.00	0.00	2	1.0543504	53.232063	18.00	1	1.100	0.900	-6.75	0.01	0	0
95	2	0.00	0.00	0.00	0.00	2	1.0543504	53.232063	18.00	1	1.100	0.900	-6.75	0.01	0	0
96	2	0.00	0.00	0.00	0.00	2	1.0543504	53.232063	18.00	1	1.100	0.900	-6.75	0.01	0	0
97	2	0.00	0.00	0.00	0.00	2	1.0433347	51.676288	18.00	1	1.100	0.900	-7.92	0.08	0	0
98	2	0.00	0.00	0.00	0.00	1	0.9969930	26.886676	18.00	1	1.100	0.900	3.82	-0.14	0	0
99	2	0.00	0.00	0.00	0.00	1	0.9969930	26.886676	18.00	1	1.100	0.900	3.82	-0.14	0	0
100	2	0.00	0.00	0.00	0.00	1	0.9969930	26.886676	18.00	1	1.100	0.900	3.82	-0.14	0	0
101	2	0.00	0.00	0.00	0.00	1	0.9969930	26.886676	18.00	1	1.100	0.900	3.82	-0.14	0	0
102	2	0.00	0.00	0.00	0.00	1	0.9996746	26.883505	18.00	1	1.100	0.900	3.82	-0.14	0	0
103	2	0.00	0.00	0.00	0.00	7	1.0538824	-36.394523	13.80	1	1.100	0.900	41.78	0.00	0	0
104	2	0.00	0.00	0.00	0.00	7	1.0538824	-36.394523	13.80	1	1.100	0.900	41.78	0.00	0	0
105	2	0.00	0.00	0.00	0.00	7	1.0526990	-40.002228	13.80	1	1.100	0.900	41.77	0.00	0	0
106	2	0.00	0.00	0.00	0.00	8	0.9990832	-25.913119	13.80	1	1.100	0.900	17.94	0.00	0	0
107	2	0.00	0.00	0.00	0.00	8	0.9992521	-26.056671	13.80	1	1.100	0.900	17.93	0.08	0	0
108	2	0.00	0.00	0.00	0.00	8	1.0009682	-28.083396	13.80	1	1.100	0.900	17.91	0.08	0	0
109	2	0.00	0.00	0.00	0.00	7	1.0104623	-33.553260	18.00	1	1.100	0.900	17.30	0.00	0	0
110	2	0.00	0.00	0.00	0.00	7	1.0104623	-33.553260	18.00	1	1.100	0.900	17.30	-0.02	0	0
111	2	0.00	0.00	0.00	0.00	7	0.9902101	-37.447611	18.00	1	1.100	0.900	41.04	2.82	0	0
112	2	0.00	0.00	0.00	0.00	3	1.0405833	11.314603	13.80	1	1.100	0.900	-414.12	0.00	0	0
113	2	0.00	0.00	0.00	0.00	3	1.0405833	11.314603	13.80	1	1.100	0.900	-414.12	-0.02	0	0
114	2	0.00	0.00	0.00	0.00	3	1.0405833	11.314603	13.80	1	1.100	0.900	-414.12	-0.02	0	0
115	2	0.00	0.00	0.00	0.00	3	1.0405833	11.314603	13.80	1	1.100	0.900	-414.12	-0.02	0	0
116	2	0.00	0.00	0.00	0.00	3	1.0405394	11.183971	13.80	1	1.100	0.900	-414.17	-0.01	0	0
117	2	0.00	0.00	0.00	0.00	4	0.9921331	38.678894	13.80	1	1.100	0.900	6.43	0.00	0	0
118	2	0.00	0.00	0.00	0.00	4	0.9921331	38.678894	13.80	1	1.100	0.900	6.43	-0.01	0	0
119	2	0.00	0.00	0.00	0.00	4	0.9921331	38.678894	13.80	1	1.100	0.900	6.43	-0.01	0	0
120	2	0.00	0.00	0.00	0.00	4	0.9921331	38.678894	13.80	1	1.100	0.900	6.43	-0.01	0	0
121	2	0.00	0.00	0.00	0.00	4	0.9955070	38.246542	13.80	1	1.100	0.900	6.42	0.00	0	0
122	2	0.00	0.00	0.00	0.00	7	1.0455978	-55.027613	13.80	1	1.100	0.900	13.88	0.00	0	0
123	2	0.00	0.00	0.00	0.00	7	1.0455978	-55.027613	13.80	1	1.100	0.900	13.88	-0.01	0	0
124	2	0.00	0.00	0.00	0.00	7	1.0455549	-55.146357	13.80	1	1.100	0.900	13.87	-0.01	0	0
125	2	0.00	0.00	0.00	0.00	3	1.0419892	24.877091	18.00	1	1.100	0.900	9.96	0.00	0	0
126	2	0.00	0.00	0.00	0.00	3	1.0419892	24.877091	18.00	1	1.100	0.900	9.96	0.00	0	0
127	2	0.00	0.00	0.00	0.00	3	1.0419837	24.854282	18.00	1	1.100	0.900	9.96	0.00	0	0
128	2	0.00	0.00	0.00	0.00	3	1.0455998	22.028856	13.80	1	1.100	0.900	12.60	0.00	0	0
129	2	0.00	0.00	0.00	0.00	3	1.0455998	22.028856	13.80	1	1.100	0.900	12.60	0.03	0	0
130	2	0.00	0.00	0.00	0.00	3	1.0455515	22.159002	13.80	1	1.100	0.900	12.61	0.03	0	0
131	2	0.00	0.00	0.00	0.00	3	1.0430083	13.540758	13.80	1	1.100	0.900	-19.05	0.00	0	0
132	2	0.00	0.00	0.00	0.00	3	1.0430083	13.540758	13.80	1	1.100	0.900	-19.05	0.01	0	0
133	2	0.00	0.00	0.00	0.00	3	1.0429860	13.468541	13.80	1	1.100	0.900	-19.05	0.01	0	0
134	2	0.00	0.00	0.00	0.00	2	1.0432362	28.416080	13.80	1	1.100	0.900	12.67	0.00	0	0
135	2	0.00	0.00	0.00	0.00	2	1.0432362	28.416080	13.80	1	1.100	0.900	12.67	0.00	0	0
136	2	0.00	0.00	0.00	0.00	2	1.0432362	28.416080	13.80	1	1.100	0.900	12.67	0.00	0	0
137	2	0.00	0.00	0.00	0.00	2	1.0432362	28.416080	13.80	1	1.100	0.900	12.67	0.00	0	0
138	2	0.00	0.00	0.00	0.00	2	1.0432498	28.452911	13.80	1	1.100	0.900	12.67	0.00	0	0
139	2	0.00	0.00	0.00	0.00	4	1.0454984	25.399144	13.80	1	1.100	0.900	13.75	0.00	0	0
140	2	0.00	0.00	0.00	0.00	4	1.0454984	25.399144	13.80	1	1.100	0.900	13.75	0.00	0	0
141	2	0.00	0.00	0.00	0.00	4	1.0454984	25.399144	13.80	1	1.100	0.900	13.75	0.00	0	0
142	2	0.00	0.00	0.00	0.00	4	1.0454984	25.399144	13.80	1	1.100	0.900	13.75	0.00	0	0
143	2	0.00	0.00	0.00	0.00	4	1.0454966	25.298403	13.80	1	1.100	0.900	13.75	0.00	0	0
144	2	0.00	0.00	0.00	0.00	2	1.0402712	7.791534	13.80	1	1.100	0.900	-6.74	0.00	0	0
145	2	0.00	0.00	0.00	0.00	2	1.0402712	7.791534	13.80	1	1.100	0.900	-6.74	-0.00	0	0
146	2	0.00	0.00	0.00	0.00	2	1.0402712	7.791534	13.80	1	1.100	0.900	-6.74	-0.00	0	0
147	2	0.00	0.00	0.00	0.00	2	1.0402712	7.791534	13.80	1	1.100	0.900	-6.74	-0.00	0	0
148	2	0.00	0.00	0.00	0.00	2	1.0402489	7.648128	13.80	1	1.100	0.900	-6.74	-0.00	0	0
149	2	0.00	0.00	0.00	0.00	1	1.0418888	38.010921	13.80	1	1.100	0.900	1.91	0.00	0	0
150	2	0.00	0.00	0.00	0.00	1	1.0418888	38.010921	13.80	1	1.100	0.900	1.91	-0.00	0	0
151	2	0.00	0.00	0.00	0.00	1	1.0418720	38.592693	13.80	1	1.100	0.900	1.93	-0.00	0	0
152	2	0.00	0.00	0.00	0.00	8	1.0453773	-30.269950	13.80	1	1.100	0.900	46.80	0.00	0	0
153	2	0.00	0.00	0.00	0.00	8	1.0453773	-30.269950	13.80	1	1.100	0.900	46.80	0.00	0	0
154	2	0.00	0.00	0.00	0.00	8	1.0454802	-30.818897	13.80	1	1.100	0.900	46.80	0.00	0	0
155	2	0.00	0.00	0.00	0.00	2	1.0416997	-50.130638	13.80	1	1.100	0.900	-49.53	0.00	0	0
156	2	0.00	0.00	0.00	0.00	2	1.0416997	-50.130638	13.80	1	1.100	0.900	-49.53	-0.12	0	0
157	2	0.00	0.00	0.00	0.00	2	1.0416283	-50.283251	13.80	1	1.100	0.900	-49.55	-0.12	0	0
158	2	0.00	0.00	0.00	0.00	7	1.0435629	-45.462395	13.80	1	1.100	0.900	44.58	0.00	0	0
159	2	0.00	0.00	0.00	0.00	7	1.0435629	-45.462395	13.80	1	1.100	0.900	44.58	0.00	0	0
160	2	0.00	0.00	0.00	0.00	7	1.0440991	-47.242167	13.80	1	1.100	0.900	44.58	0.00	0	0
161	2	0.00	0.00	0.00	0.00	1	0.9896448	32.964723	24.00	1	1.100	0.900	1.23	0.00	0	0
162	2	0.00	0.00	0.00	0.00	1	0.9896448	32.964723	24.00	1	1.100	0.900	1.23	-0.00	0	0
163	2	0.00	0.00	0.00	0.00	1	0.9896582	33.266373	24.00	1	1.100	0.900	1.24	-0.00	0	0
164	2	0.00	0.00	0.00	0.00	1	1.0401349	29.161409	13.00	1	1.100	0.900	2.51	0.00	0	0
165	2	0.00	0.00	0.00	0.00	1	1.0401349	29.161409	13.00	1	1.100	0.900	2.51	-0.00	0	0
166	2	0.00	0.00	0.00	0.00	1	1.0401349	29.161409	13.00	1	1.100	0.900	2.51	-0.00	0	0
167	2	0.00	0.00	0.00	0.00	1	1.0401349	29.161409	13.00	1	1.100	0.900	2.51	-0.00	0	0
168	2	0.00	0.00	0.00	0.00	1	1.0400991	29.007558	13.00	1	1.100	0.900	2.51	-0.00	0	0
169	2	0.00	0.00	0.00	0.00	3	1.0485117	24.314850	13.80	1	1.100	0.900	15.24	0.00	0	0
170	2	0.00	0.00	0.00	0.00	3	1.0487742	23.798568	13.80	1	1.100	0.900	15.23	0.04	0	0
171	2	0.00	0.00	0.00	0.00	3	1.0487760	23.794287	13.80	1	1.100	0.900	15.23	0.04	0	0
172	2	0.00	0.00	0.00	0.00	3	1.0487760	23.794287	13.80	1	1.100	0.900	15.23	0.04	0	0
173	2	0.00	0.00	0.00	0.00	3	1.0486154	24.129773	13.80	1	1.100	0.900	15.23	0.04	0	0
174	2	0.00	0.00	0.00	0.00	3	1.0425298	-26.705256	13.80	1	1.100	0.900	46.95	0.00	0	0
175	2	0.00	0.00	0.00	0.00	3	1.0425298	-26.705256	13.80	1	1.100	0.900	46.95	0.00	0	0
176	2	0.00	0.00	0.00	0.00	3	1.0429443	-28.613695	13.80	1	1.100	0.900	46.95	-0.00	0	0
177	2	0.00	0.00	0.00	0.00	6	1.0455424	-36.197216	13.80	1	1.100	0.900	12.44	0.00	0	0
178	2	0.00	0.00	0.00	0.00	6	1.0455424	-36.197216	13.80	1	1.100	0.900	12.44	0.04	0	0
179	2	0.00	0.00	0.00	0.00	6	1.0444277	-37.949889	13.80	1	1.100	0.900	12.32	0.04	0	0
180	2	0.00	0.00	0.00	0.00	2	1.0464465	-28.781479	13.80	1	1.100	0.900	13.37	0.00	0	0
181	2	0.00	0.00	0.00	0.00	2	1.0464469	-28.730792	13.80	1	1.100	0.900	13.37	0.01	0	0
182	2	0.00	0.00	0.00	0.00	2	1.0464460	-28.809783	13.80	1	1.100	0.900	13.37	0.01	0	0
183	2	0.00	0.00	0.00	0.00	2	1.0464460	-28.809783	13.80	1	1.100	0.900	13.37	0.01	0	0
184	2	0.00	0.00	0.00	0.00	2	1.0464467	-28.698490	13.80	1	1.100	0.900	13.37	0.01	0	0
185	2	0.00	0.00	0.00	0.00	1	1.0429303	56.580362	18.00	1	1.100	0.900	0.41	0.00	0	0
186	2	0.00	0.00	0.00	0.00	1	1.0429303	56.580362	18.00	1	1.100	0.900	0.41	-0.01	0	0
187	2	0.00	0.00	0.00	0.00	1	1.0428609	55.942866	18.00	1	1.100	0.900	0.37	-0.00	0	0
188	2	0.00	0.00	0.00	0.00	5	1.0407489	-1.881175	24.00	1	1.100	0.900	8.56	0.00	0	0
189	2	0.00	0.00	0.00	0.00	5	1.0407489	-1.881175	24.00	1	1.100	0.900	8.56	0.00	0	0
190	2	0.00	0.00	0.00	0.00	5	1.0407489	-1.881175	24.00	1	1.100	0.900	8.56	0.00	0	0
191	2	0.00	0.00	0.00	0.00	5	1.0407489	-1.881175	24.00	1	1.100	0.900	8.56	0.00	0	0
192	2	0.00	0.00	0.00	0.00	5	1.0407279	-1.944719	24.00	1	1.100	0.900	8.56	0.00	0	0
193	2	0.00	0.00	0.00	0.00	2	1.0418303	-49.301235	13.80	1	1.100	0.900	-49.29	0.00	0	0
194	2	0.00	0.00	0.00	0.00	2	1.0418303	-49.301235	13.80	1	1.100	0.900	-49.29	-0.12	0	0
195	2	0.00	0.00	0.00	0.00	2	1.0418608	-49.221553	13.80	1	1.100	0.900	-49.28	-0.12	0	0
196	2	0.00	0.00	0.00	0.00	2	0.9962599	-31.250897	13.80	1	1.100	0.900	13.35	0.00	0	0
197	2	0.00	0.00	0.00	0.00	2	0.9962599	-31.250897	13.80	1	1.100	0.900	13.35	0.01	0	0
198	2	0.00	0.00	0.00	0.00	2	0.9963162	-31.478639	13.80	1	1.100	0.900	13.35	0.00	0	0
199	2	0.00	0.00	0.00	0.00	8	1.0031382	-34.262148	13.80	1	1.100	0.900	46.79	0.34	0	0
200	2	0.00	0.00	0.00	0.00	8	1.0031382	-34.262148	13.80	1	1.100	0.900	46.79	0.34	0	0
201	2	0.00	0.00	0.00	0.00	8	1.0056752	-34.578277	13.80	1	1.100	0.900	46.80	0.33	0	0
...
];

%% generator data 
mpc.gen = [
90	38.86	-0.27	41.12	-31.28	1.0400	100.00	1	101.00	38.86	0.00	0.00	0.00	0.00	0.00	0.00	0	0	0	0	110.0000	0	0	0	0
91	38.86	-0.27	41.12	-31.28	1.0400	100.00	1	101.00	38.86	0.00	0.00	0.00	0.00	0.00	0.00	0	0	0	0	110.0000	0	0	0	0
92	15.21	-0.27	39.21	-23.98	1.0400	100.00	1	77.53	15.21	0.00	0.00	0.00	0.00	0.00	0.00	0	0	0	0	77.5300	0	0	0	0
93	102.71	-9.82	120.23	-97.98	1.0544	100.00	1	300.00	102.71	0.00	0.00	0.00	0.00	0.00	0.00	0	0	0	0	300.0000	0	0	0	0
94	102.71	-9.82	120.23	-97.98	1.0544	100.00	1	300.00	102.71	0.00	0.00	0.00	0.00	0.00	0.00	0	0	0	0	399.0000	0	0	0	0
95	102.71	-9.82	120.23	-97.98	1.0544	100.00	1	300.00	102.71	0.00	0.00	0.00	0.00	0.00	0.00	0	0	0	0	300.0000	0	0	0	0
96	102.71	-9.82	120.23	-97.98	1.0544	100.00	1	300.00	102.71	0.00	0.00	0.00	0.00	0.00	0.00	0	0	0	0	10.0000	0	0	0	0
97	41.23	-9.82	72.34	-45.31	1.0433	100.00	1	142.88	41.23	0.00	0.00	0.00	0.00	0.00	0.00	0	0	0	0	142.8800	0	0	0	0
98	22.30	-39.13	45.90	-39.13	0.9970	100.00	1	120.00	22.30	0.00	0.00	0.00	0.00	0.00	0.00	0	0	0	0	120.0000	0	0	0	0
99	22.30	-39.13	45.90	-39.13	0.9970	100.00	1	120.00	22.30	0.00	0.00	0.00	0.00	0.00	0.00	0	0	0	0	120.0000	0	0	0	0
100	22.30	-39.13	45.90	-39.13	0.9970	100.00	1	120.00	22.30	0.00	0.00	0.00	0.00	0.00	0.00	0	0	0	0	120.0000	0	0	0	0
101	22.30	-39.13	45.90	-39.13	0.9970	100.00	1	120.00	22.30	0.00	0.00	0.00	0.00	0.00	0.00	0	0	0	0	22.3000	0	0	0	0
102	22.31	-19.81	28.21	-19.81	0.9997	100.00	1	57.15	22.31	0.00	0.00	0.00	0.00	0.00	0.00	0	0	0	0	57.1500	0	0	0	0
103	275.00	49.10	131.81	-89.13	1.0539	100.00	1	275.00	104.12	0.00	0.00	0.00	0.00	0.00	0.00	0	0	0	0	275.0000	0	0	0	0
104	275.00	49.10	131.81	-89.13	1.0539	100.00	1	275.00	104.12	0.00	0.00	0.00	0.00	0.00	0.00	0	0	0	0	275.0000	0	0	0	0
105	77.37	37.88	37.88	-23.55	1.0527	100.00	1	77.37	14.88	0.00	0.00	0.00	0.00	0.00	0.00	0	0	0	0	77.3700	0	0	0	0
106	284.17	4.63	254.12	-163.21	0.9991	100.00	1	500.00	140.28	0.00	0.00	0.00	0.00	0.00	0.00	0	0	0	0	10.0000	0	0	0	0
107	275.64	4.63	254.12	-163.21	0.9993	100.00	1	500.00	140.28	0.00	0.00	0.00	0.00	0.00	0.00	0	0	0	0	10.0000	0	0	0	0
108	154.73	4.63	78.19	-49.11	1.0010	100.00	1	154.73	22.45	0.00	0.00	0.00	0.00	0.00	0.00	0	0	0	0	154.7300	0	0	0	0
109	233.48	27.53	113.45	-82.13	1.0105	100.00	1	250.00	35.91	0.00	0.00	0.00	0.00	0.00	0.00	0	0	0	0	10.0000	0	0	0	0
110	233.48	27.53	113.45	-82.13	1.0105	100.00	1	250.00	35.91	0.00	0.00	0.00	0.00	0.00	0.00	0	0	0	0	10.0000	0	0	0	0
111	77.37	-22.91	38.29	-22.91	0.9902	100.00	1	77.37	15.97	0.00	0.00	0.00	0.00	0.00	0.00	0	0	0	0	77.3700	0	0	0	0
112	32.14	3.39	64.80	-53.58	1.0406	100.00	1	160.00	32.14	0.00	0.00	0.00	0.00	0.00	0.00	0	0	0	0	160.0000	0	0	0	0
113	32.14	3.39	64.80	-53.58	1.0406	100.00	1	160.00	32.14	0.00	0.00	0.00	0.00	0.00	0.00	0	0	0	0	160.0000	0	0	0	0
114	32.14	3.39	64.80	-53.58	1.0406	100.00	1	160.00	32.14	0.00	0.00	0.00	0.00	0.00	0.00	0	0	0	0	160.0000	0	0	0	0
115	32.14	3.39	64.80	-53.80	1.0406	100.00	1	160.00	32.14	0.00	0.00	0.00	0.00	0.00	0.00	0	0	0	0	160.0000	0	0	0	0
116	15.81	3.39	39.52	-22.31	1.0405	100.00	1	76.20	15.81	0.00	0.00	0.00	0.00	0.00	0.00	0	0	0	0	76.2000	0	0	0	0
117	48.73	-33.60	73.86	-42.13	0.9921	100.00	1	144.90	48.73	0.00	0.00	0.00	0.00	0.00	0.00	0	0	0	0	144.9000	0	0	0	0
118	48.73	-33.60	73.86	-42.13	0.9921	100.00	1	144.90	48.73	0.00	0.00	0.00	0.00	0.00	0.00	0	0	0	0	144.9000	0	0	0	0
119	48.73	-33.60	73.86	-42.13	0.9921	100.00	1	144.90	48.73	0.00	0.00	0.00	0.00	0.00	0.00	0	0	0	0	144.9000	0	0	0	0
120	48.73	-33.60	73.86	-42.13	0.9921	100.00	1	144.90	48.73	0.00	0.00	0.00	0.00	0.00	0.00	0	0	0	0	144.9000	0	0	0	0
121	17.22	-19.22	35.23	-19.22	0.9955	100.00	1	69.01	17.22	0.00	0.00	0.00	0.00	0.00	0.00	0	0	0	0	69.0100	0	0	0	0
122	103.85	15.37	109.31	-81.21	1.0456	100.00	1	250.00	41.21	0.00	0.00	0.00	0.00	0.00	0.00	0	0	0	0	10.0000	0	0	0	0
123	103.85	15.37	109.31	-81.21	1.0456	100.00	1	250.00	41.21	0.00	0.00	0.00	0.00	0.00	0.00	0	0	0	0	10.0000	0	0	0	0
124	96.58	15.37	97.21	-58.21	1.0456	100.00	1	191.91	88.13	0.00	0.00	0.00	0.00	0.00	0.00	0	0	0	0	1.9200	0	0	0	0
125	56.21	3.92	78.21	-54.12	1.0420	100.00	1	200.00	56.21	0.00	0.00	0.00	0.00	0.00	0.00	0	0	0	0	200.0000	0	0	0	0
126	56.21	3.92	78.21	-54.12	1.0420	100.00	1	200.00	56.21	0.00	0.00	0.00	0.00	0.00	0.00	0	0	0	0	200.0000	0	0	0	0
127	55.12	3.92	78.31	-46.21	1.0420	100.00	1	153.52	55.12	0.00	0.00	0.00	0.00	0.00	0.00	0	0	0	0	153.5200	0	0	0	0
128	48.85	7.10	58.21	-38.13	1.0456	100.00	1	125.00	16.21	0.00	0.00	0.00	0.00	0.00	0.00	0	0	0	0	10.0000	0	0	0	0
129	48.85	7.10	58.21	-38.13	1.0456	100.00	1	125.00	16.21	0.00	0.00	0.00	0.00	0.00	0.00	0	0	0	0	10.0000	0	0	0	0
130	51.82	7.10	48.91	-24.51	1.0456	100.00	1	95.95	32.91	0.00	0.00	0.00	0.00	0.00	0.00	0	0	0	0	95.9500	0	0	0	0
131	61.21	7.85	89.13	-51.21	1.0430	100.00	1	200.00	61.21	0.00	0.00	0.00	0.00	0.00	0.00	0	0	0	0	10.0000	0	0	0	0
132	61.21	7.85	89.13	-51.21	1.0430	100.00	1	200.00	61.21	0.00	0.00	0.00	0.00	0.00	0.00	0	0	0	0	10.0000	0	0	0	0
133	57.10	7.85	78.12	-45.12	1.0430	100.00	1	153.52	57.10	0.00	0.00	0.00	0.00	0.00	0.00	0	0	0	0	153.5200	0	0	0	0
134	42.13	6.19	113.21	-72.31	1.0432	100.00	1	250.00	42.13	0.00	0.00	0.00	0.00	0.00	0.00	0	0	0	0	250.0000	0	0	0	0
135	42.13	6.19	113.21	-72.31	1.0432	100.00	1	250.00	42.13	0.00	0.00	0.00	0.00	0.00	0.00	0	0	0	0	250.0000	0	0	0	0
136	42.13	6.19	113.21	-72.31	1.0432	100.00	1	250.00	42.13	0.00	0.00	0.00	0.00	0.00	0.00	0	0	0	0	250.0000	0	0	0	0
137	42.13	6.19	113.21	-72.31	1.0432	100.00	1	250.00	42.13	0.00	0.00	0.00	0.00	0.00	0.00	0	0	0	0	250.0000	0	0	0	0
138	43.67	6.19	43.21	-38.22	1.0432	100.00	1	119.07	27.81	0.00	0.00	0.00	0.00	0.00	0.00	0	0	0	0	119.0700	0	0	0	0
139	92.07	13.31	74.13	-62.13	1.0455	100.00	1	209.40	41.78	0.00	0.00	0.00	0.00	0.00	0.00	0	0	0	0	209.4000	0	0	0	0
140	92.07	13.31	74.13	-62.13	1.0455	100.00	1	209.40	41.78	0.00	0.00	0.00	0.00	0.00	0.00	0	0	0	0	209.4000	0	0	0	0
141	92.07	13.31	74.13	-62.13	1.0455	100.00	1	209.40	41.78	0.00	0.00	0.00	0.00	0.00	0.00	0	0	0	0	209.4000	0	0	0	0
142	92.07	13.31	74.13	-62.13	1.0455	100.00	1	209.40	41.78	0.00	0.00	0.00	0.00	0.00	0.00	0	0	0	0	209.4000	0	0	0	0
143	87.14	13.31	38.21	-32.13	1.0455	100.00	1	99.73	18.22	0.00	0.00	0.00	0.00	0.00	0.00	0	0	0	0	99.7300	0	0	0	0
144	51.31	0.75	109.59	-76.46	1.0403	100.00	1	225.60	51.31	0.00	0.00	0.00	0.00	0.00	0.00	0	0	0	0	225.6000	0	0	0	0
145	51.31	0.75	109.59	-76.46	1.0403	100.00	1	225.60	51.31	0.00	0.00	0.00	0.00	0.00	0.00	0	0	0	0	225.6000	0	0	0	0
146	51.31	0.75	109.59	-76.46	1.0403	100.00	1	225.60	51.31	0.00	0.00	0.00	0.00	0.00	0.00	0	0	0	0	225.6000	0	0	0	0
147	51.31	0.75	109.59	-76.46	1.0403	100.00	1	225.60	51.31	0.00	0.00	0.00	0.00	0.00	0.00	0	0	0	0	225.6000	0	0	0	0
148	38.12	0.75	54.72	-31.23	1.0402	100.00	1	107.45	38.12	0.00	0.00	0.00	0.00	0.00	0.00	0	0	0	0	107.4500	0	0	0	0
149	43.51	3.88	95.13	-82.13	1.0419	100.00	1	255.00	43.51	0.00	0.00	0.00	0.00	0.00	0.00	0	0	0	0	255.0000	0	0	0	0
150	43.51	3.88	95.13	-82.13	1.0419	100.00	1	255.00	43.51	0.00	0.00	0.00	0.00	0.00	0.00	0	0	0	0	255.0000	0	0	0	0
151	68.21	3.88	95.31	-55.21	1.0419	100.00	1	196.74	68.21	0.00	0.00	0.00	0.00	0.00	0.00	0	0	0	0	195.7400	0	0	0	0
152	127.50	15.31	58.13	-38.14	1.0454	100.00	1	127.50	25.87	0.00	0.00	0.00	0.00	0.00	0.00	0	0	0	0	127.5000	0	0	0	0
153	127.50	15.31	58.13	-38.14	1.0454	100.00	1	127.50	25.87	0.00	0.00	0.00	0.00	0.00	0.00	0	0	0	0	127.5000	0	0	0	0
154	97.87	15.31	49.72	-24.82	1.0455	100.00	1	97.87	33.53	0.00	0.00	0.00	0.00	0.00	0.00	0	0	0	0	97.8700	0	0	0	0
155	27.31	4.18	38.72	-21.21	1.0417	100.00	1	82.50	27.31	0.00	0.00	0.00	0.00	0.00	0.00	0	0	0	0	82.5000	0	0	0	0
156	27.31	4.18	39.42	-20.31	1.0417	100.00	1	82.50	27.31	0.00	0.00	0.00	0.00	0.00	0.00	0	0	0	0	82.5000	0	0	0	0
157	19.21	4.18	30.88	-20.12	1.0416	100.00	1	63.33	19.21	0.00	0.00	0.00	0.00	0.00	0.00	0	0	0	0	63.3300	0	0	0	0
158	196.00	16.66	91.71	-57.13	1.0436	100.00	1	196.00	97.13	0.00	0.00	0.00	0.00	0.00	0.00	0	0	0	0	196.0000	0	0	0	0
159	196.00	16.66	91.71	-57.13	1.0436	100.00	1	196.00	97.13	0.00	0.00	0.00	0.00	0.00	0.00	0	0	0	0	196.0000	0	0	0	0
160	61.89	16.66	32.05	-19.99	1.0441	100.00	1	61.89	20.93	0.00	0.00	0.00	0.00	0.00	0.00	0	0	0	0	61.8900	0	0	0	0
161	35.13	-41.64	81.23	-61.13	0.9896	100.00	1	200.00	35.13	0.00	0.00	0.00	0.00	0.00	0.00	0	0	0	0	200.0000	0	0	0	0
162	35.13	-41.64	81.23	-61.13	0.9896	100.00	1	200.00	35.13	0.00	0.00	0.00	0.00	0.00	0.00	0	0	0	0	200.0000	0	0	0	0
163	56.13	-41.64	77.31	-47.01	0.9897	100.00	1	153.52	56.13	0.00	0.00	0.00	0.00	0.00	0.00	0	0	0	0	153.5200	0	0	0	0
164	12.83	0.19	19.81	-14.51	1.0401	100.00	1	50.00	12.83	0.00	0.00	0.00	0.00	0.00	0.00	0	0	0	0	10.0000	0	0	0	0
165	12.83	0.19	19.81	-14.51	1.0401	100.00	1	50.00	12.83	0.00	0.00	0.00	0.00	0.00	0.00	0	0	0	0	10.0000	0	0	0	0
166	12.83	0.19	19.81	-14.51	1.0401	100.00	1	50.00	12.83	0.00	0.00	0.00	0.00	0.00	0.00	0	0	0	0	10.0000	0	0	0	0
167	12.83	0.19	19.81	-14.51	1.0401	100.00	1	50.00	12.83	0.00	0.00	0.00	0.00	0.00	0.00	0	0	0	0	10.0000	0	0	0	0
168	5.21	0.19	12.81	-7.21	1.0401	100.00	1	23.81	5.21	0.00	0.00	0.00	0.00	0.00	0.00	0	0	0	0	23.8100	0	0	0	0
169	166.51	29.94	207.81	-107.81	1.0485	100.00	1	418.90	103.41	0.00	0.00	0.00	0.00	0.00	0.00	0	0	0	0	10.0000	0	0	0	0
170	135.22	29.94	207.81	-107.81	1.0488	100.00	1	418.90	103.41	0.00	0.00	0.00	0.00	0.00	0.00	0	0	0	0	10.0000	0	0	0	0
171	134.96	29.94	207.81	-107.81	1.0488	100.00	1	418.90	103.41	0.00	0.00	0.00	0.00	0.00	0.00	0	0	0	0	10.0000	0	0	0	0
172	134.96	29.94	207.81	-107.81	1.0488	100.00	1	418.90	103.41	0.00	0.00	0.00	0.00	0.00	0.00	0	0	0	0	10.0000	0	0	0	0
173	155.30	29.94	72.18	-52.13	1.0486	100.00	1	199.51	52.13	0.00	0.00	0.00	0.00	0.00	0.00	0	0	0	0	199.5100	0	0	0	0
174	200.00	11.00	94.23	-57.13	1.0425	100.00	1	200.00	90.83	0.00	0.00	0.00	0.00	0.00	0.00	0	0	0	0	200.0000	0	0	0	0
175	200.00	11.00	94.23	-57.13	1.0425	100.00	1	200.00	90.83	0.00	0.00	0.00	0.00	0.00	0.00	0	0	0	0	200.0000	0	0	0	0
176	61.89	11.00	31.82	-19.82	1.0429	100.00	1	61.89	19.70	0.00	0.00	0.00	0.00	0.00	0.00	0	0	0	0	61.8900	0	0	0	0
177	91.41	7.89	92.54	-59.13	1.0455	100.00	1	200.00	91.41	0.00	0.00	0.00	0.00	0.00	0.00	0	0	0	0	200.0000	0	0	0	0
178	91.41	7.89	92.54	-59.13	1.0455	100.00	1	200.00	91.41	0.00	0.00	0.00	0.00	0.00	0.00	0	0	0	0	200.0000	0	0	0	0
179	24.69	7.89	31.91	-19.46	1.0444	100.00	1	61.89	20.03	0.00	0.00	0.00	0.00	0.00	0.00	0	0	0	0	61.8900	0	0	0	0
180	66.02	23.14	89.94	-57.13	1.0464	100.00	1	180.10	35.13	0.00	0.00	0.00	0.00	0.00	0.00	0	0	0	0	180.1000	0	0	0	0
181	69.41	23.14	89.94	-57.13	1.0464	100.00	1	180.10	35.13	0.00	0.00	0.00	0.00	0.00	0.00	0	0	0	0	180.1000	0	0	0	0
182	64.12	23.14	89.94	-57.13	1.0464	100.00	1	180.10	35.13	0.00	0.00	0.00	0.00	0.00	0.00	0	0	0	0	180.1000	0	0	0	0
183	64.12	23.14	89.94	-57.13	1.0464	100.00	1	180.10	35.13	0.00	0.00	0.00	0.00	0.00	0.00	0	0	0	0	180.1000	0	0	0	0
184	71.57	23.14	44.13	-22.88	1.0464	100.00	1	85.78	38.41	0.00	0.00	0.00	0.00	0.00	0.00	0	0	0	0	85.7800	0	0	0	0
185	99.13	6.94	143.12	-95.21	1.0429	100.00	1	300.00	99.13	0.00	0.00	0.00	0.00	0.00	0.00	0	0	0	0	300.0000	0	0	0	0
186	99.13	6.94	143.12	-95.21	1.0429	100.00	1	300.00	99.13	0.00	0.00	0.00	0.00	0.00	0.00	0	0	0	0	300.0000	0	0	0	0
187	65.21	6.94	111.21	-68.21	1.0429	100.00	1	230.29	65.21	0.00	0.00	0.00	0.00	0.00	0.00	0	0	0	0	230.2900	0	0	0	0
188	42.13	0.66	92.31	-68.13	1.0407	100.00	1	242.80	42.13	0.00	0.00	0.00	0.00	0.00	0.00	0	0	0	0	242.8000	0	0	0	0
189	42.13	0.66	92.31	-68.13	1.0407	100.00	1	242.80	42.13	0.00	0.00	0.00	0.00	0.00	0.00	0	0	0	0	242.8000	0	0	0	0
190	42.13	0.66	92.31	-68.13	1.0407	100.00	1	242.80	42.13	0.00	0.00	0.00	0.00	0.00	0.00	0	0	0	0	242.8000	0	0	0	0
191	42.13	0.66	92.31	-68.13	1.0407	100.00	1	242.80	42.13	0.00	0.00	0.00	0.00	0.00	0.00	0	0	0	0	242.8000	0	0	0	0
192	39.41	0.66	49.13	-32.41	1.0407	100.00	1	115.64	39.41	0.00	0.00	0.00	0.00	0.00	0.00	0	0	0	0	115.6400	0	0	0	0
193	35.18	4.38	58.91	-37.13	1.0418	100.00	1	135.00	35.18	0.00	0.00	0.00	0.00	0.00	0.00	0	0	0	0	135.0000	0	0	0	0
194	35.18	4.38	58.91	-37.13	1.0418	100.00	1	135.00	35.18	0.00	0.00	0.00	0.00	0.00	0.00	0	0	0	0	135.0000	0	0	0	0
195	39.41	4.38	48.81	-32.21	1.0419	100.00	1	103.63	39.41	0.00	0.00	0.00	0.00	0.00	0.00	0	0	0	0	103.6300	0	0	0	0
196	60.00	-13.69	30.89	-18.21	0.9963	100.00	1	60.00	17.51	0.00	0.00	0.00	0.00	0.00	0.00	0	0	0	0	60.0000	0	0	0	0
197	60.00	-13.69	30.89	-18.21	0.9963	100.00	1	60.00	17.51	0.00	0.00	0.00	0.00	0.00	0.00	0	0	0	0	60.0000	0	0	0	0
198	46.06	-13.45	23.52	-13.45	0.9963	100.00	1	46.06	16.21	0.00	0.00	0.00	0.00	0.00	0.00	0	0	0	0	46.0600	0	0	0	0
199	60.00	-19.31	32.13	-19.31	1.0031	100.00	1	60.00	17.13	0.00	0.00	0.00	0.00	0.00	0.00	0	0	0	0	60.0000	0	0	0	0
200	60.00	-19.31	32.13	-19.31	1.0031	100.00	1	60.00	17.13	0.00	0.00	0.00	0.00	0.00	0.00	0	0	0	0	60.0000	0	0	0	0
201	46.06	-12.89	24.01	-12.89	1.0057	100.00	1	46.06	16.88	0.00	0.00	0.00	0.00	0.00	0.00	0	0	0	0	46.0600	0	0	0	0
202	82.13	0.00	0.00	0.00	1.0426	100.00	1	239.60	82.13	0.00	0.00	0.00	0.00	0.00	0.00	0	0	0	0	239.6000	0	0	0	0
203	82.13	0.00	0.00	0.00	1.0426	100.00	1	239.60	82.13	0.00	0.00	0.00	0.00	0.00	0.00	0	0	0	0	239.6000	0	0	0	0
204	82.13	0.00	0.00	0.00	1.0426	100.00	1	239.60	82.13	0.00	0.00	0.00	0.00	0.00	0.00	0	0	0	0	239.6000	0	0	0	0
205	82.13	0.00	0.00	0.00	1.0426	100.00	1	239.60	82.13	0.00	0.00	0.00	0.00	0.00	0.00	0	0	0	0	239.6000	0	0	0	0
206	42.13	53.13	53.13	53.13	1.0512	100.00	1	114.12	42.13	0.00	0.00	0.00	0.00	0.00	0.00	0	0	0	0	114.1200	0	0	0	0
207	34.21	-0.76	89.12	-62.31	1.0399	100.00	1	200.00	34.21	0.00	0.00	0.00	0.00	0.00	0.00	0	0	0	0	200.0000	0	0	0	0
208	34.21	-0.76	89.12	-62.31	1.0399	100.00	1	200.00	34.21	0.00	0.00	0.00	0.00	0.00	0.00	0	0	0	0	200.0000	0	0	0	0
209	34.21	-0.76	89.12	-62.31	1.0399	100.00	1	200.00	34.21	0.00	0.00	0.00	0.00	0.00	0.00	0	0	0	0	200.0000	0	0	0	0
210	34.21	-0.76	89.12	-62.31	1.0399	100.00	1	200.00	34.21	0.00	0.00	0.00	0.00	0.00	0.00	0	0	0	0	200.0000	0	0	0	0
211	45.13	-0.76	46.11	-28.13	1.0400	100.00	1	95.26	45.13	0.00	0.00	0.00	0.00	0.00	0.00	0	0	0	0	95.2600	0	0	0	0
212	38.71	5.32	103.51	-78.13	1.0429	100.00	1	255.00	38.71	0.00	0.00	0.00	0.00	0.00	0.00	0	0	0	0	255.0000	0	0	0	0
213	38.71	5.32	103.51	-78.13	1.0429	100.00	1	255.00	38.71	0.00	0.00	0.00	0.00	0.00	0.00	0	0	0	0	255.0000	0	0	0	0
214	67.13	5.32	91.88	-58.21	1.0430	100.00	1	195.74	67.13	0.00	0.00	0.00	0.00	0.00	0.00	0	0	0	0	195.7400	0	0	0	0
215	141.14	34.17	135.13	-81.23	1.0452	100.00	1	293.40	75.81	0.00	0.00	0.00	0.00	0.00	0.00	0	0	0	0	10.0000	0	0	0	0
216	156.51	34.17	135.13	-81.23	1.0451	100.00	1	293.40	75.81	0.00	0.00	0.00	0.00	0.00	0.00	0	0	0	0	10.0000	0	0	0	0
217	141.09	34.17	135.13	-81.23	1.0452	100.00	1	293.40	75.81	0.00	0.00	0.00	0.00	0.00	0.00	0	0	0	0	10.0000	0	0	0	0
218	141.09	34.17	135.13	-81.23	1.0452	100.00	1	293.40	75.81	0.00	0.00	0.00	0.00	0.00	0.00	0	0	0	0	10.0000	0	0	0	0
219	139.83	34.17	70.57	-38.82	1.0452	100.00	1	139.83	48.51	0.00	0.00	0.00	0.00	0.00	0.00	0	0	0	0	139.8300	0	0	0	0
220	40.86	5.84	62.45	-52.24	1.0447	100.00	1	182.40	25.13	0.00	0.00	0.00	0.00	0.00	0.00	0	0	0	0	182.4000	0	0	0	0
221	40.86	5.84	62.45	-52.24	1.0447	100.00	1	182.40	25.13	0.00	0.00	0.00	0.00	0.00	0.00	0	0	0	0	182.4000	0	0	0	0
222	40.86	5.84	62.45	-52.24	1.0447	100.00	1	182.40	25.13	0.00	0.00	0.00	0.00	0.00	0.00	0	0	0	0	182.4000	0	0	0	0
223	40.86	5.84	62.45	-52.24	1.0447	100.00	1	182.40	25.13	0.00	0.00	0.00	0.00	0.00	0.00	0	0	0	0	182.4000	0	0	0	0
224	43.98	5.84	42.13	-28.12	1.0447	100.00	1	86.87	39.21	0.00	0.00	0.00	0.00	0.00	0.00	0	0	0	0	86.8700	0	0	0	0
225	58.12	0.57	110.88	-66.13	1.0407	100.00	1	225.00	58.12	0.00	0.00	0.00	0.00	0.00	0.00	0	0	0	0	225.0000	0	0	0	0
226	58.12	0.57	110.88	-66.13	1.0407	100.00	1	225.00	58.12	0.00	0.00	0.00	0.00	0.00	0.00	0	0	0	0	225.0000	0	0	0	0
227	70.13	0.57	86.21	-52.13	1.0407	100.00	1	172.71	70.13	0.00	0.00	0.00	0.00	0.00	0.00	0	0	0	0	172.7100	0	0	0	0
228	51.23	1.17	132.13	-94.32	1.0406	100.00	1	300.00	51.23	0.00	0.00	0.00	0.00	0.00	0.00	0	0	0	0	300.0000	0	0	0	0
229	51.23	1.17	132.13	-94.32	1.0406	100.00	1	300.00	51.23	0.00	0.00	0.00	0.00	0.00	0.00	0	0	0	0	300.0000	0	0	0	0
230	57.21	1.17	62.31	-37.59	1.0406	100.00	1	122.05	57.21	0.00	0.00	0.00	0.00	0.00	0.00	0	0	0	0	122.0500	0	0	0	0
231	38.12	1.17	54.22	-35.12	1.0406	100.00	1	108.23	38.12	0.00	0.00	0.00	0.00	0.00	0.00	0	0	0	0	108.2300	0	0	0	0
232	48.13	18.77	65.13	-42.31	1.0424	100.00	1	150.00	48.13	0.00	0.00	0.00	0.00	0.00	0.00	0	0	0	0	150.0000	0	0	0	0
233	48.13	18.77	65.13	-42.31	1.0424	100.00	1	150.00	48.13	0.00	0.00	0.00	0.00	0.00	0.00	0	0	0	0	150.0000	0	0	0	0
234	48.13	18.77	65.13	-42.31	1.0424	100.00	1	150.00	48.13	0.00	0.00	0.00	0.00	0.00	0.00	0	0	0	0	150.0000	0	0	0	0
235	48.13	18.77	65.13	-42.31	1.0424	100.00	1	150.00	48.13	0.00	0.00	0.00	0.00	0.00	0.00	0	0	0	0	150.0000	0	0	0	0
236	24.31	18.77	36.42	-20.81	1.0424	100.00	1	71.44	24.31	0.00	0.00	0.00	0.00	0.00	0.00	0	0	0	0	71.4400	0	0	0	0
237	37.12	2.92	83.45	-58.12	1.0406	100.00	1	200.00	37.12	0.00	0.00	0.00	0.00	0.00	0.00	0	0	0	0	200.0000	0	0	0	0
238	37.12	2.92	83.45	-58.12	1.0406	100.00	1	200.00	37.12	0.00	0.00	0.00	0.00	0.00	0.00	0	0	0	0	200.0000	0	0	0	0
239	56.92	2.92	78.13	-46.23	1.0406	100.00	1	153.52	56.92	0.00	0.00	0.00	0.00	0.00	0.00	0	0	0	0	153.5200	0	0	0	0
240	138.41	8.15	271.23	-179.23	1.0414	100.00	1	524.40	138.41	0.00	0.00	0.00	0.00	0.00	0.00	0	0	0	0	524.4000	0	0	0	0
241	138.41	8.15	271.23	-179.23	1.0414	100.00	1	524.40	138.41	0.00	0.00	0.00	0.00	0.00	0.00	0	0	0	0	524.4000	0	0	0	0
242	138.41	8.15	271.23	-179.23	1.0414	100.00	1	524.40	138.41	0.00	0.00	0.00	0.00	0.00	0.00	0	0	0	0	524.4000	0	0	0	0
243	138.41	8.15	271.23	-179.23	1.0414	100.00	1	524.40	138.41	0.00	0.00	0.00	0.00	0.00	0.00	0	0	0	0	524.4000	0	0	0	0
244	41.07	8.15	103.51	-80.98	1.0413	100.00	1	249.76	41.07	0.00	0.00	0.00	0.00	0.00	0.00	0	0	0	0	249.7600	0	0	0	0
245	80.12	1.87	109.11	-62.13	1.0406	100.00	1	239.80	80.12	0.00	0.00	0.00	0.00	0.00	0.00	0	0	0	0	239.8000	0	0	0	0
246	80.12	1.87	109.11	-62.13	1.0406	100.00	1	239.80	80.12	0.00	0.00	0.00	0.00	0.00	0.00	0	0	0	0	239.8000	0	0	0	0
247	80.12	1.87	109.11	-62.13	1.0406	100.00	1	239.80	80.12	0.00	0.00	0.00	0.00	0.00	0.00	0	0	0	0	239.8000	0	0	0	0
248	80.12	1.87	109.11	-62.13	1.0406	100.00	1	239.80	80.12	0.00	0.00	0.00	0.00	0.00	0.00	0	0	0	0	239.8000	0	0	0	0
249	42.57	1.87	53.89	-33.81	1.0405	100.00	1	114.21	42.57	0.00	0.00	0.00	0.00	0.00	0.00	0	0	0	0	114.2100	0	0	0	0
250	52.86	3.73	67.31	-61.95	1.0420	100.00	1	200.20	52.86	0.00	0.00	0.00	0.00	0.00	0.00	0	0	0	0	200.2000	0	0	0	0
251	52.86	3.73	67.31	-61.95	1.0420	100.00	1	200.20	52.86	0.00	0.00	0.00	0.00	0.00	0.00	0	0	0	0	200.2000	0	0	0	0
252	52.86	3.73	67.31	-61.95	1.0420	100.00	1	200.20	52.86	0.00	0.00	0.00	0.00	0.00	0.00	0	0	0	0	200.2000	0	0	0	0
253	52.86	3.73	67.31	-61.95	1.0420	100.00	1	200.20	52.86	0.00	0.00	0.00	0.00	0.00	0.00	0	0	0	0	200.2000	0	0	0	0
254	25.13	3.73	39.91	-29.31	1.0418	100.00	1	95.35	25.13	0.00	0.00	0.00	0.00	0.00	0.00	0	0	0	0	95.3500	0	0	0	0
255	73.12	4.79	134.21	-85.13	1.0424	100.00	1	272.60	73.12	0.00	0.00	0.00	0.00	0.00	0.00	0	0	0	0	272.6000	0	0	0	0
256	73.12	4.79	134.21	-85.13	1.0424	100.00	1	272.60	73.12	0.00	0.00	0.00	0.00	0.00	0.00	0	0	0	0	272.6000	0	0	0	0
257	73.12	4.79	134.21	-85.13	1.0424	100.00	1	272.60	73.12	0.00	0.00	0.00	0.00	0.00	0.00	0	0	0	0	272.6000	0	0	0	0
258	73.12	4.79	134.21	-85.13	1.0424	100.00	1	272.60	73.12	0.00	0.00	0.00	0.00	0.00	0.00	0	0	0	0	272.6000	0	0	0	0
259	32.18	4.79	58.78	-37.23	1.0423	100.00	1	129.83	32.18	0.00	0.00	0.00	0.00	0.00	0.00	0	0	0	0	10.0000	0	0	0	0
260	78.11	3.54	81.32	-56.12	1.0413	100.00	1	180.00	78.11	0.00	0.00	0.00	0.00	0.00	0.00	0	0	0	0	180.0000	0	0	0	0
261	78.11	3.54	81.32	-56.12	1.0413	100.00	1	180.00	78.11	0.00	0.00	0.00	0.00	0.00	0.00	0	0	0	0	180.0000	0	0	0	0
262	52.13	3.54	70.25	-35.12	1.0414	100.00	1	138.17	52.13	0.00	0.00	0.00	0.00	0.00	0.00	0	0	0	0	138.1700	0	0	0	0
263	1.79	-5.32	8.21	-5.32	1.0323	100.00	1	16.80	1.79	0.00	0.00	0.00	0.00	0.00	0.00	0	0	0	0	16.8000	0	0	0	0
264	1.79	-5.32	8.21	-5.32	1.0323	100.00	1	16.80	1.79	0.00	0.00	0.00	0.00	0.00	0.00	0	0	0	0	16.8000	0	0	0	0
265	2.13	-3.13	5.21	-3.13	1.0333	100.00	1	12.90	2.13	0.00	0.00	0.00	0.00	0.00	0.00	0	0	0	0	12.9000	0	0	0	0
266	267.13	28.60	172.13	-109.22	1.0453	100.00	1	350.00	160.20	0.00	0.00	0.00	0.00	0.00	0.00	0	0	0	0	350.0000	0	0	0	0
267	255.62	28.60	172.13	-109.22	1.0454	100.00	1	350.00	160.20	0.00	0.00	0.00	0.00	0.00	0.00	0	0	0	0	350.0000	0	0	0	0
268	268.67	28.60	132.11	-85.21	1.0453	100.00	1	268.67	45.13	0.00	0.00	0.00	0.00	0.00	0.00	0	0	0	0	268.6700	0	0	0	0
269	18.70	9.21	9.21	-5.75	1.0399	100.00	1	18.70	6.10	0.00	0.00	0.00	0.00	0.00	0.00	0	0	0	0	18.7000	0	0	0	0
270	18.70	9.21	9.21	-5.75	1.0399	100.00	1	18.70	6.10	0.00	0.00	0.00	0.00	0.00	0.00	0	0	0	0	18.7000	0	0	0	0
271	5.79	3.21	3.21	-2.42	1.0386	100.00	1	5.79	1.22	0.00	0.00	0.00	0.00	0.00	0.00	0	0	0	0	5.7900	0	0	0	0
272	203.48	29.57	161.23	-98.72	1.0494	100.00	1	363.00	135.12	0.00	0.00	0.00	0.00	0.00	0.00	0	0	0	0	182.0000	0	0	0	0
273	219.82	29.57	161.23	-98.72	1.0492	100.00	1	363.00	135.12	0.00	0.00	0.00	0.00	0.00	0.00	0	0	0	0	182.0000	0	0	0	0
274	112.34	29.57	49.29	-33.82	1.0498	100.00	1	112.34	43.19	0.00	0.00	0.00	0.00	0.00	0.00	0	0	0	0	112.3400	0	0	0	0
275	259.56	24.15	126.23	-84.98	1.0427	100.00	1	300.00	91.32	0.00	0.00	0.00	0.00	0.00	0.00	0	0	0	0	300.0000	0	0	0	0
276	261.26	24.15	126.23	-84.98	1.0427	100.00	1	300.00	91.32	0.00	0.00	0.00	0.00	0.00	0.00	0	0	0	0	300.0000	0	0	0	0
277	266.54	24.15	126.23	-84.98	1.0427	100.00	1	300.00	91.32	0.00	0.00	0.00	0.00	0.00	0.00	0	0	0	0	300.0000	0	0	0	0
278	258.26	24.15	126.23	-84.98	1.0427	100.00	1	300.00	91.32	0.00	0.00	0.00	0.00	0.00	0.00	0	0	0	0	300.0000	0	0	0	0
279	142.88	2.87	72.34	-45.31	1.0405	100.00	1	142.88	41.23	0.00	0.00	0.00	0.00	0.00	0.00	0	0	0	0	142.8800	0	0	0	0
280	90.76	10.96	82.38	-55.81	1.0438	100.00	1	201.60	52.13	0.00	0.00	0.00	0.00	0.00	0.00	0	0	0	0	201.6000	0	0	0	0
281	82.02	10.96	82.38	-55.81	1.0438	100.00	1	201.60	52.13	0.00	0.00	0.00	0.00	0.00	0.00	0	0	0	0	201.6000	0	0	0	0
282	82.02	10.96	82.38	-55.81	1.0438	100.00	1	201.60	52.13	0.00	0.00	0.00	0.00	0.00	0.00	0	0	0	0	201.6000	0	0	0	0
283	82.02	10.96	82.38	-55.81	1.0438	100.00	1	201.60	52.13	0.00	0.00	0.00	0.00	0.00	0.00	0	0	0	0	201.6000	0	0	0	0
284	89.72	10.96	49.12	-24.61	1.0438	100.00	1	96.02	33.01	0.00	0.00	0.00	0.00	0.00	0.00	0	0	0	0	96.0200	0	0	0	0
285	51.34	3.73	108.21	-57.13	1.0417	100.00	1	222.80	51.34	0.00	0.00	0.00	0.00	0.00	0.00	0	0	0	0	222.8000	0	0	0	0
286	51.34	3.73	108.21	-57.13	1.0417	100.00	1	222.80	51.34	0.00	0.00	0.00	0.00	0.00	0.00	0	0	0	0	222.8000	0	0	0	0
287	42.13	3.73	86.31	-45.61	1.0416	100.00	1	171.03	42.13	0.00	0.00	0.00	0.00	0.00	0.00	0	0	0	0	171.0300	0	0	0	0
288	8.21	13.64	16.31	-11.24	1.0465	100.00	1	40.00	8.21	0.00	0.00	0.00	0.00	0.00	0.00	0	0	0	0	40.0000	0	0	0	0
289	172.13	13.64	218.31	-120.21	1.0457	100.00	1	420.00	172.13	0.00	0.00	0.00	0.00	0.00	0.00	0	0	0	0	420.0000	0	0	0	0
...
];

%% generator cost data
mpc.gencost = [
1	0	0	11	38.86	492.82	45.07	571.63	51.29	651.34	57.50	731.95	63.72	813.47	69.93	895.89	76.14	979.21	82.36	1063.44	88.57	1148.57	94.79	1234.61	101.00	1321.55
1	0	0	11	38.86	492.82	45.07	571.63	51.29	651.34	57.50	731.95	63.72	813.47	69.93	895.89	76.14	979.21	82.36	1063.44	88.57	1148.57	94.79	1234.61	101.00	1321.55
1	0	0	11	15.21	184.48	21.44	260.07	27.67	336.56	33.91	413.97	40.14	492.28	46.37	571.50	52.60	651.63	58.83	732.67	65.07	814.62	71.30	897.48	77.53	981.24
1	0	0	11	102.71	1472.27	122.44	1755.07	142.17	2046.98	161.90	2347.99	181.63	2658.12	201.36	2977.35	221.08	3305.69	240.81	3643.14	260.54	3989.70	280.27	4345.36	300.00	4710.14
1	0	0	11	102.71	1472.27	122.44	1755.07	142.17	2046.98	161.90	2347.99	181.63	2658.12	201.36	2977.35	221.08	3305.69	240.81	3643.14	260.54	3989.70	280.27	4345.36	300.00	4710.14
1	0	0	11	102.71	1472.27	122.44	1755.07	142.17	2046.98	161.90	2347.99	181.63	2658.12	201.36	2977.35	221.08	3305.69	240.81	3643.14	260.54	3989.70	280.27	4345.36	300.00	4710.14
1	0	0	11	102.71	1472.27	122.44	1755.07	142.17	2046.98	161.90	2347.99	181.63	2658.12	201.36	2977.35	221.08	3305.69	240.81	3643.14	260.54	3989.70	280.27	4345.36	300.00	4710.14
1	0	0	11	41.23	527.07	51.39	657.02	61.56	789.38	71.72	924.17	81.89	1061.37	92.05	1200.98	102.22	1343.02	112.38	1487.47	122.55	1634.34	132.71	1783.63	142.88	1935.34
1	0	0	11	22.30	275.10	32.07	395.62	41.84	518.38	51.61	643.37	61.38	770.59	71.15	900.05	80.92	1031.74	90.69	1165.67	100.46	1301.83	110.23	1440.22	120.00	1580.85
1	0	0	11	22.30	275.10	32.07	395.62	41.84	518.38	51.61	643.37	61.38	770.59	71.15	900.05	80.92	1031.74	90.69	1165.67	100.46	1301.83	110.23	1440.22	120.00	1580.85
1	0	0	11	22.30	275.10	32.07	395.62	41.84	518.38	51.61	643.37	61.38	770.59	71.15	900.05	80.92	1031.74	90.69	1165.67	100.46	1301.83	110.23	1440.22	120.00	1580.85
1	0	0	11	22.30	275.10	32.07	395.62	41.84	518.38	51.61	643.37	61.38	770.59	71.15	900.05	80.92	1031.74	90.69	1165.67	100.46	1301.83	110.23	1440.22	120.00	1580.85
1	0	0	11	22.31	273.58	25.79	316.31	29.28	359.31	32.76	402.61	36.25	446.18	39.73	490.04	43.21	534.19	46.70	578.61	50.18	623.33	53.67	668.32	57.15	713.60
1	0	0	11	104.12	1492.70	121.21	1737.68	138.30	1989.49	155.38	2248.14	172.47	2513.61	189.56	2785.92	206.65	3065.07	223.74	3351.04	240.82	3643.85	257.91	3943.49	275.00	4249.97
1	0	0	11	104.12	1492.70	121.21	1737.68	138.30	1989.49	155.38	2248.14	172.47	2513.61	189.56	2785.92	206.65	3065.07	223.74	3351.04	240.82	3643.85	257.91	3943.49	275.00	4249.97
1	0	0	11	14.88	180.37	21.13	256.11	27.38	332.77	33.63	410.34	39.88	488.83	46.13	568.23	52.37	648.55	58.62	729.78	64.87	811.92	71.12	894.98	77.37	978.95
1	0	0	11	140.28	2160.79	176.25	2714.88	212.22	3299.26	248.20	3913.91	284.17	4558.84	320.14	5234.04	356.11	5939.53	392.08	6675.30	428.06	7441.35	464.03	8237.67	500.00	9064.28
1	0	0	11	140.28	2160.79	176.25	2714.88	212.22	3299.26	248.20	3913.91	284.17	4558.84	320.14	5234.04	356.11	5939.53	392.08	6675.30	428.06	7441.35	464.03	8237.67	500.00	9064.28
1	0	0	11	22.45	277.93	35.68	441.70	48.91	609.56	62.13	781.51	75.36	957.56	88.59	1137.70	101.82	1321.93	115.05	1510.27	128.27	1702.69	141.50	1899.21	154.73	2099.83
1	0	0	11	35.91	459.32	57.32	733.15	78.73	1017.72	100.14	1313.01	121.55	1619.02	142.96	1935.76	164.36	2263.22	185.77	2601.41	207.18	2950.33	228.59	3309.97	250.00	3680.33
1	0	0	11	35.91	459.32	57.32	733.15	78.73	1017.72	100.14	1313.01	121.55	1619.02	142.96	1935.76	164.36	2263.22	185.77	2601.41	207.18	2950.33	228.59	3309.97	250.00	3680.33
1	0	0	11	15.97	193.96	22.11	268.54	28.25	343.99	34.39	420.33	40.53	497.55	46.67	575.65	52.81	654.64	58.95	734.50	65.09	815.25	71.23	896.88	77.37	979.40
1	0	0	11	32.14	405.02	44.93	566.14	57.71	731.09	70.50	899.87	83.28	1072.47	96.07	1248.90	108.86	1429.15	121.64	1613.23	134.43	1801.13	147.21	1992.86	160.00	2188.41
1	0	0	11	32.14	405.02	44.93	566.14	57.71	731.09	70.50	899.87	83.28	1072.47	96.07	1248.90	108.86	1429.15	121.64	1613.23	134.43	1801.13	147.21	1992.86	160.00	2188.41
1	0	0	11	32.14	405.02	44.93	566.14	57.71	731.09	70.50	899.87	83.28	1072.47	96.07	1248.90	108.86	1429.15	121.64	1613.23	134.43	1801.13	147.21	1992.86	160.00	2188.41
1	0	0	11	32.14	405.02	44.93	566.14	57.71	731.09	70.50	899.87	83.28	1072.47	96.07	1248.90	108.86	1429.15	121.64	1613.23	134.43	1801.13	147.21	1992.86	160.00	2188.41
1	0	0	11	15.81	191.94	21.85	265.26	27.89	339.43	33.93	414.45	39.97	490.33	46.01	567.06	52.04	644.65	58.08	723.08	64.12	802.38	70.16	882.52	76.20	963.52
1	0	0	11	48.73	631.19	58.35	755.76	67.96	882.49	77.58	1011.38	87.20	1142.44	96.82	1275.67	106.43	1411.06	116.05	1548.61	125.67	1688.32	135.28	1830.20	144.90	1974.25
1	0	0	11	48.73	631.19	58.35	755.76	67.96	882.49	77.58	1011.38	87.20	1142.44	96.82	1275.67	106.43	1411.06	116.05	1548.61	125.67	1688.32	135.28	1830.20	144.90	1974.25
1	0	0	11	48.73	631.19	58.35	755.76	67.96	882.49	77.58	1011.38	87.20	1142.44	96.82	1275.67	106.43	1411.06	116.05	1548.61	125.67	1688.32	135.28	1830.20	144.90	1974.25
1	0	0	11	48.73	631.19	58.35	755.76	67.96	882.49	77.58	1011.38	87.20	1142.44	96.82	1275.67	106.43	1411.06	116.05	1548.61	125.67	1688.32	135.28	1830.20	144.90	1974.25
1	0	0	11	17.22	209.46	22.40	272.45	27.58	336.07	32.76	400.32	37.94	465.20	43.12	530.71	48.29	596.84	53.47	663.60	58.65	730.99	63.83	799.01	69.01	867.65
1	0	0	11	41.21	531.96	62.09	801.48	82.97	1081.20	103.85	1371.12	124.73	1671.24	145.61	1981.56	166.48	2302.09	187.36	2632.81	208.24	2973.74	229.12	3324.86	250.00	3686.19
1	0	0	11	41.21	531.96	62.09	801.48	82.97	1081.20	103.85	1371.12	124.73	1671.24	145.61	1981.56	166.48	2302.09	187.36	2632.81	208.24	2973.74	229.12	3324.86	250.00	3686.19
1	0	0	11	88.13	1223.57	98.51	1367.65	108.89	1514.26	119.26	1663.38	129.64	1815.03	140.02	1969.19	150.40	2125.88	160.78	2285.09	171.15	2446.81	181.53	2611.06	191.91	2777.83
1	0	0	11	56.21	741.05	70.59	930.61	84.97	1125.02	99.35	1324.26	113.73	1528.34	128.10	1737.26	142.48	1951.02	156.86	2169.61	171.24	2393.04	185.62	2621.31	200.00	2854.42
1	0	0	11	56.21	741.05	70.59	930.61	84.97	1125.02	99.35	1324.26	113.73	1528.34	128.10	1737.26	142.48	1951.02	156.86	2169.61	171.24	2393.04	185.62	2621.31	200.00	2854.42
1	0	0	11	55.12	722.34	64.96	851.30	74.80	982.51	84.64	1116.00	94.48	1251.75	104.32	1389.76	114.16	1530.05	124.00	1672.59	133.84	1817.40	143.68	1964.48	153.52	2113.83
1	0	0	11	16.21	197.87	27.09	330.66	37.97	466.23	48.85	604.56	59.73	745.67	70.61	889.54	81.48	1036.18	92.36	1185.60	103.24	1337.78	114.12	1492.73	125.00	1650.45
1	0	0	11	16.21	197.87	27.09	330.66	37.97	466.23	48.85	604.56	59.73	745.67	70.61	889.54	81.48	1036.18	92.36	1185.60	103.24	1337.78	114.12	1492.73	125.00	1650.45
1	0	0	11	32.91	412.82	39.21	491.89	45.52	571.90	51.82	652.84	58.13	734.70	64.43	817.50	70.73	901.23	77.04	985.88	83.34	1071.47	89.65	1157.98	95.95	1245.43
1	0	0	11	61.21	813.77	75.09	998.29	88.97	1187.31	102.85	1380.84	116.73	1578.88	130.60	1781.43	144.48	1988.48	158.36	2200.04	172.24	2416.11	186.12	2636.69	200.00	2861.78
1	0	0	11	61.21	813.77	75.09	998.29	88.97	1187.31	102.85	1380.84	116.73	1578.88	130.60	1781.43	144.48	1988.48	158.36	2200.04	172.24	2416.11	186.12	2636.69	200.00	2861.78
1	0	0	11	57.10	750.81	66.74	877.59	76.38	1006.54	86.03	1137.68	95.67	1270.99	105.31	1406.47	114.95	1544.13	124.59	1683.96	134.24	1825.98	143.88	1970.16	153.52	2116.52
1	0	0	11	42.13	544.70	62.92	813.46	83.70	1092.32	104.49	1381.30	125.28	1680.39	146.06	1989.59	166.85	2308.90	187.64	2638.33	208.43	2977.86	229.21	3327.51	250.00	3687.26
1	0	0	11	42.13	544.70	62.92	813.46	83.70	1092.32	104.49	1381.30	125.28	1680.39	146.06	1989.59	166.85	2308.90	187.64	2638.33	208.43	2977.86	229.21	3327.51	250.00	3687.26
1	0	0	11	42.13	544.70	62.92	813.46	83.70	1092.32	104.49	1381.30	125.28	1680.39	146.06	1989.59	166.85	2308.90	187.64	2638.33	208.43	2977.86	229.21	3327.51	250.00	3687.26
1	0	0	11	42.13	544.70	62.92	813.46	83.70	1092.32	104.49	1381.30	125.28	1680.39	146.06	1989.59	166.85	2308.90	187.64	2638.33	208.43	2977.86	229.21	3327.51	250.00	3687.26
1	0	0	11	27.81	346.44	36.94	460.13	46.06	575.77	55.19	693.35	64.31	812.89	73.44	934.37	82.57	1057.80	91.69	1183.18	100.82	1310.51	109.94	1439.79	119.07	1571.02
1	0	0	11	41.78	537.87	58.54	753.66	75.30	976.02	92.07	1204.96	108.83	1440.47	125.59	1682.56	142.35	1931.23	159.11	2186.46	175.88	2448.27	192.64	2716.66	209.40	2991.62
1	0	0	11	41.78	537.87	58.54	753.66	75.30	976.02	92.07	1204.96	108.83	1440.47	125.59	1682.56	142.35	1931.23	159.11	2186.46	175.88	2448.27	192.64	2716.66	209.40	2991.62
1	0	0	11	41.78	537.87	58.54	753.66	75.30	976.02	92.07	1204.96	108.83	1440.47	125.59	1682.56	142.35	1931.23	159.11	2186.46	175.88	2448.27	192.64	2716.66	209.40	2991.62
1	0	0	11	41.78	537.87	58.54	753.66	75.30	976.02	92.07	1204.96	108.83	1440.47	125.59	1682.56	142.35	1931.23	159.11	2186.46	175.88	2448.27	192.64	2716.66	209.40	2991.62
1	0	0	11	18.22	222.68	26.37	322.30	34.52	423.47	42.67	526.20	50.82	630.48	58.97	736.32	67.13	843.71	75.28	952.66	83.43	1063.16	91.58	1175.22	99.73	1288.83
1	0	0	11	51.31	672.40	68.74	900.80	86.17	1136.30	103.60	1378.92	121.03	1628.64	138.46	1885.48	155.88	2149.42	173.31	2420.47	190.74	2698.62	208.17	2983.89	225.60	3276.26
1	0	0	11	51.31	672.40	68.74	900.80	86.17	1136.30	103.60	1378.92	121.03	1628.64	138.46	1885.48	155.88	2149.42	173.31	2420.47	190.74	2698.62	208.17	2983.89	225.60	3276.26
1	0	0	11	51.31	672.40	68.74	900.80	86.17	1136.30	103.60	1378.92	121.03	1628.64	138.46	1885.48	155.88	2149.42	173.31	2420.47	190.74	2698.62	208.17	2983.89	225.60	3276.26
1	0	0	11	51.31	672.40	68.74	900.80	86.17	1136.30	103.60	1378.92	121.03	1628.64	138.46	1885.48	155.88	2149.42	173.31	2420.47	190.74	2698.62	208.17	2983.89	225.60	3276.26
1	0	0	11	38.12	483.10	45.05	570.96	51.99	659.95	58.92	750.06	65.85	841.30	72.78	933.66	79.72	1027.15	86.65	1121.76	93.58	1217.49	100.52	1314.36	107.45	1412.34
1	0	0	11	43.51	564.13	64.66	838.34	85.81	1123.02	106.96	1418.16	128.11	1723.77	149.25	2039.84	170.40	2366.38	191.55	2703.39	212.70	3050.86	233.85	3408.80	255.00	3777.21
1	0	0	11	43.51	564.13	64.66	838.34	85.81	1123.02	106.96	1418.16	128.11	1723.77	149.25	2039.84	170.40	2366.38	191.55	2703.39	212.70	3050.86	233.85	3408.80	255.00	3777.21
1	0	0	11	68.21	917.19	81.06	1090.01	93.92	1266.71	106.77	1447.27	119.62	1631.69	132.47	1819.98	145.33	2012.14	158.18	2208.16	171.03	2408.05	183.89	2611.80	196.74	2819.42
1	0	0	11	25.87	321.42	36.03	447.68	46.20	576.37	56.36	707.47	66.52	840.99	76.68	976.92	86.85	1115.28	97.01	1256.05	107.17	1399.23	117.34	1544.83	127.50	1692.85
1	0	0	11	25.87	321.42	36.03	447.68	46.20	576.37	56.36	707.47	66.52	840.99	76.68	976.92	86.85	1115.28	97.01	1256.05	107.17	1399.23	117.34	1544.83	127.50	1692.85
1	0	0	11	33.53	421.13	39.96	501.94	46.40	583.72	52.83	666.47	59.27	750.19	65.70	834.87	72.13	920.52	78.57	1007.15	85.00	1094.74	91.44	1183.30	97.87	1272.83
1	0	0	11	27.31	338.74	32.83	407.20	38.35	476.37	43.87	546.25	49.39	616.84	54.90	688.15	60.42	760.17	65.94	832.90	71.46	906.34	76.98	980.50	82.50	1055.37
1	0	0	11	27.31	338.74	32.83	407.20	38.35	476.37	43.87	546.25	49.39	616.84	54.90	688.15	60.42	760.17	65.94	832.90	71.46	906.34	76.98	980.50	82.50	1055.37
1	0	0	11	19.21	234.38	23.62	288.22	28.03	342.50	32.45	397.24	36.86	452.44	41.27	508.10	45.68	564.20	50.09	620.77	54.51	677.79	58.92	735.26	63.33	793.20
1	0	0	11	97.13	1368.42	107.02	1507.71	116.90	1649.29	126.79	1793.16	136.68	1939.32	146.56	2087.76	156.45	2238.49	166.34	2391.51	176.23	2546.81	186.11	2704.40	196.00	2864.28
1	0	0	11	97.13	1368.42	107.02	1507.71	116.90	1649.29	126.79	1793.16	136.68	1939.32	146.56	2087.76	156.45	2238.49	166.34	2391.51	176.23	2546.81	186.11	2704.40	196.00	2864.28
1	0	0	11	20.93	256.13	25.03	306.26	29.12	356.78	33.22	407.69	37.31	458.99	41.41	510.69	45.51	562.78	49.60	615.26	53.70	668.13	57.79	721.40	61.89	775.06
1	0	0	11	35.13	446.68	51.62	656.31	68.10	872.30	84.59	1094.65	101.08	1323.36	117.57	1558.44	134.05	1799.87	150.54	2047.67	167.03	2301.82	183.51	2562.34	200.00	2829.22
1	0	0	11	35.13	446.68	51.62	656.31	68.10	872.30	84.59	1094.65	101.08	1323.36	117.57	1558.44	134.05	1799.87	150.54	2047.67	167.03	2301.82	183.51	2562.34	200.00	2829.22
1	0	0	11	56.13	736.84	65.87	864.69	75.61	994.75	85.35	1127.04	95.09	1261.55	104.82	1398.27	114.56	1537.22	124.30	1678.38	134.04	1821.77	143.78	1967.37	153.52	2115.19
1	0	0	11	12.83	154.52	16.55	199.29	20.26	244.38	23.98	289.79	27.70	335.53	31.42	381.59	35.13	427.97	38.85	474.68	42.57	521.70	46.28	569.06	50.00	616.73
1	0	0	11	12.83	154.52	16.55	199.29	20.26	244.38	23.98	289.79	27.70	335.53	31.42	381.59	35.13	427.97	38.85	474.68	42.57	521.70	46.28	569.06	50.00	616.73
1	0	0	11	12.83	154.52	16.55	199.29	20.26	244.38	23.98	289.79	27.70	335.53	31.42	381.59	35.13	427.97	38.85	474.68	42.57	521.70	46.28	569.06	50.00	616.73
1	0	0	11	12.83	154.52	16.55	199.29	20.26	244.38	23.98	289.79	27.70	335.53	31.42	381.59	35.13	427.97	38.85	474.68	42.57	521.70	46.28	569.06	50.00	616.73
1	0	0	11	5.21	61.71	7.07	83.73	8.93	105.84	10.79	128.04	12.65	150.31	14.51	172.66	16.37	195.10	18.23	217.61	20.09	240.21	21.95	262.88	23.81	285.64
1	0	0	11	103.41	1498.30	134.96	1955.41	166.51	2435.81	198.06	2939.50	229.61	3466.49	261.16	4016.76	292.70	4590.33	324.25	5187.18	355.80	5807.33	387.35	6450.77	418.90	7117.50
1	0	0	11	103.41	1498.30	134.96	1955.41	166.51	2435.81	198.06	2939.50	229.61	3466.49	261.16	4016.76	292.70	4590.33	324.25	5187.18	355.80	5807.33	387.35	6450.77	418.90	7117.50
1	0	0	11	103.41	1498.30	134.96	1955.41	166.51	2435.81	198.06	2939.50	229.61	3466.49	261.16	4016.76	292.70	4590.33	324.25	5187.18	355.80	5807.33	387.35	6450.77	418.90	7117.50
1	0	0	11	103.41	1498.30	134.96	1955.41	166.51	2435.81	198.06	2939.50	229.61	3466.49	261.16	4016.76	292.70	4590.33	324.25	5187.18	355.80	5807.33	387.35	6450.77	418.90	7117.50
1	0	0	11	52.13	682.50	66.87	875.45	81.61	1073.49	96.34	1276.61	111.08	1484.81	125.82	1698.10	140.56	1916.46	155.30	2139.91	170.03	2368.45	184.77	2602.06	199.51	2840.76
1	0	0	11	90.83	1267.36	101.75	1419.69	112.66	1574.81	123.58	1732.71	134.50	1893.40	145.41	2056.89	156.33	2223.16	167.25	2392.22	178.17	2564.06	189.08	2738.70	200.00	2916.13
1	0	0	11	90.83	1267.36	101.75	1419.69	112.66	1574.81	123.58	1732.71	134.50	1893.40	145.41	2056.89	156.33	2223.16	167.25	2392.22	178.17	2564.06	189.08	2738.70	200.00	2916.13
1	0	0	11	19.70	240.54	23.92	292.06	28.14	343.99	32.36	396.34	36.58	449.10	40.79	502.29	45.01	555.88	49.23	609.90	53.45	664.33	57.67	719.18	61.89	774.44
1	0	0	11	91.41	1276.64	102.27	1428.29	113.13	1582.71	123.99	1739.89	134.85	1899.82	145.70	2062.52	156.56	2227.97	167.42	2396.18	178.28	2567.15	189.14	2740.89	200.00	2917.38
1	0	0	11	91.41	1276.64	102.27	1428.29	113.13	1582.71	123.99	1739.89	134.85	1899.82	145.70	2062.52	156.56	2227.97	167.42	2396.18	178.28	2567.15	189.14	2740.89	200.00	2917.38
1	0	0	11	20.03	244.72	24.22	295.86	28.40	347.42	32.59	399.38	36.77	451.75	40.96	504.54	45.15	557.73	49.33	611.33	53.52	665.35	57.70	719.77	61.89	774.60
1	0	0	11	35.13	445.86	49.63	629.85	64.12	818.76	78.62	1012.58	93.12	1211.33	107.61	1414.99	122.11	1623.57	136.61	1837.07	151.11	2055.48	165.60	2278.82	180.10	2507.07
1	0	0	11	35.13	445.86	49.63	629.85	64.12	818.76	78.62	1012.58	93.12	1211.33	107.61	1414.99	122.11	1623.57	136.61	1837.07	151.11	2055.48	165.60	2278.82	180.10	2507.07
1	0	0	11	35.13	445.86	49.63	629.85	64.12	818.76	78.62	1012.58	93.12	1211.33	107.61	1414.99	122.11	1623.57	136.61	1837.07	151.11	2055.48	165.60	2278.82	180.10	2507.07
1	0	0	11	35.13	445.86	49.63	629.85	64.12	818.76	78.62	1012.58	93.12	1211.33	107.61	1414.99	122.11	1623.57	136.61	1837.07	151.11	2055.48	165.60	2278.82	180.10	2507.07
1	0	0	11	38.41	486.05	43.15	545.99	47.88	606.46	52.62	667.45	57.36	728.97	62.09	791.01	66.83	853.58	71.57	916.68	76.31	980.29	81.04	1044.44	85.78	1109.11
1	0	0	11	99.13	1413.06	119.22	1699.40	139.30	1995.17	159.39	2300.39	179.48	2615.05	199.57	2939.15	219.65	3272.69	239.74	3615.67	259.83	3968.10	279.91	4329.96	300.00	4701.27
1	0	0	11	99.13	1413.06	119.22	1699.40	139.30	1995.17	159.39	2300.39	179.48	2615.05	199.57	2939.15	219.65	3272.69	239.74	3615.67	259.83	3968.10	279.91	4329.96	300.00	4701.27
1	0	0	11	65.21	875.06	81.72	1096.58	98.23	1324.48	114.73	1558.75	131.24	1799.41	147.75	2046.43	164.26	2299.84	180.77	2559.62	197.27	2825.78	213.78	3098.32	230.29	3377.23
1	0	0	11	42.13	544.35	62.20	803.62	82.26	1072.33	102.33	1350.45	122.40	1638.00	142.46	1934.97	162.53	2241.36	182.60	2557.17	202.67	2882.41	222.73	3217.07	242.80	3561.15
1	0	0	11	42.13	544.35	62.20	803.62	82.26	1072.33	102.33	1350.45	122.40	1638.00	142.46	1934.97	162.53	2241.36	182.60	2557.17	202.67	2882.41	222.73	3217.07	242.80	3561.15
1	0	0	11	42.13	544.35	62.20	803.62	82.26	1072.33	102.33	1350.45	122.40	1638.00	142.46	1934.97	162.53	2241.36	182.60	2557.17	202.67	2882.41	222.73	3217.07	242.80	3561.15
1	0	0	11	42.13	544.35	62.20	803.62	82.26	1072.33	102.33	1350.45	122.40	1638.00	142.46	1934.97	162.53	2241.36	182.60	2557.17	202.67	2882.41	222.73	3217.07	242.80	3561.15
1	0	0	11	39.41	500.96	47.03	597.85	54.66	696.11	62.28	795.73	69.90	896.71	77.53	999.05	85.15	1102.75	92.77	1207.80	100.39	1314.22	108.02	1422.00	115.64	1531.13
1	0	0	11	35.18	444.68	45.16	570.85	55.14	699.35	65.13	830.19	75.11	963.35	85.09	1098.85	95.07	1236.68	105.05	1376.85	115.04	1519.34	125.02	1664.16	135.00	1811.32
1	0	0	11	35.18	444.68	45.16	570.85	55.14	699.35	65.13	830.19	75.11	963.35	85.09	1098.85	95.07	1236.68	105.05	1376.85	115.04	1519.34	125.02	1664.16	135.00	1811.32
1	0	0	11	39.41	500.40	45.83	581.94	52.25	664.45	58.68	747.92	65.10	832.36	71.52	917.76	77.94	1004.13	84.36	1091.46	90.79	1179.76	97.21	1269.02	103.63	1359.25
1	0	0	11	17.51	212.91	21.76	264.58	26.01	316.67	30.26	369.18	34.51	422.11	38.75	475.46	43.00	529.24	47.25	583.44	51.50	638.06	55.75	693.11	60.00	748.58
1	0	0	11	17.51	212.91	21.76	264.58	26.01	316.67	30.26	369.18	34.51	422.11	38.75	475.46	43.00	529.24	47.25	583.44	51.50	638.06	55.75	693.11	60.00	748.58
1	0	0	11	16.21	196.37	19.19	232.53	22.18	268.90	25.17	305.48	28.15	342.27	31.13	379.26	34.12	416.47	37.11	453.88	40.09	491.50	43.07	529.33	46.06	567.36
1	0	0	11	17.13	208.15	21.42	260.24	25.70	312.76	29.99	365.71	34.28	419.09	38.57	472.90	42.85	527.15	47.14	581.82	51.43	636.92	55.71	692.45	60.00	748.41
1	0	0	11	17.13	208.15	21.42	260.24	25.70	312.76	29.99	365.71	34.28	419.09	38.57	472.90	42.85	527.15	47.14	581.82	51.43	636.92	55.71	692.45	60.00	748.41
1	0	0	11	16.88	204.74	19.80	240.13	22.72	275.72	25.63	311.52	28.55	347.51	31.47	383.70	34.39	420.09	37.31	456.67	40.22	493.46	43.14	530.45	46.06	567.63
1	0	0	11	82.13	1133.89	97.88	1351.30	113.62	1574.50	129.37	1803.51	145.12	2038.33	160.86	2278.94	176.61	2525.36	192.36	2777.58	208.11	3035.60	223.85	3299.42	239.60	3569.05
1	0	0	11	82.13	1133.89	97.88	1351.30	113.62	1574.50	129.37	1803.51	145.12	2038.33	160.86	2278.94	176.61	2525.36	192.36	2777.58	208.11	3035.60	223.85	3299.42	239.60	3569.05
1	0	0	11	82.13	1133.89	97.88	1351.30	113.62	1574.50	129.37	1803.51	145.12	2038.33	160.86	2278.94	176.61	2525.36	192.36	2777.58	208.11	3035.60	223.85	3299.42	239.60	3569.05
1	0	0	11	82.13	1133.89	97.88	1351.30	113.62	1574.50	129.37	1803.51	145.12	2038.33	160.86	2278.94	176.61	2525.36	192.36	2777.58	208.11	3035.60	223.85	3299.42	239.60	3569.05
1	0	0	11	42.13	538.00	49.33	629.93	56.53	723.08	63.73	817.44	70.93	913.01	78.13	1009.79	85.32	1107.78	92.52	1206.99	99.72	1307.41	106.92	1409.05	114.12	1511.89
1	0	0	11	34.21	434.28	50.79	644.74	67.37	861.63	83.95	1084.96	100.53	1314.72	117.11	1550.91	133.68	1793.53	150.26	2042.58	166.84	2298.06	183.42	2559.98	200.00	2828.33
1	0	0	11	34.21	434.28	50.79	644.74	67.37	861.63	83.95	1084.96	100.53	1314.72	117.11	1550.91	133.68	1793.53	150.26	2042.58	166.84	2298.06	183.42	2559.98	200.00	2828.33
1	0	0	11	34.21	434.28	50.79	644.74	67.37	861.63	83.95	1084.96	100.53	1314.72	117.11	1550.91	133.68	1793.53	150.26	2042.58	166.84	2298.06	183.42	2559.98	200.00	2828.33
1	0	0	11	34.21	434.28	50.79	644.74	67.37	861.63	83.95	1084.96	100.53	1314.72	117.11	1550.91	133.68	1793.53	150.26	2042.58	166.84	2298.06	183.42	2559.98	200.00	2828.33
1	0	0	11	45.13	578.33	50.14	642.57	55.16	707.40	60.17	772.81	65.18	838.82	70.20	905.41	75.21	972.59	80.22	1040.36	85.23	1108.71	90.25	1177.66	95.26	1247.19
...